data_HKUST1_kdtree_Fm-3m  hall_number: 523, V_con: 4, EC_con: 3
_audit_creation_date              2025-11-11
_audit_creation_method            'MOFbuilder_1.0'
_symmetry_space_group_name_H-M    'P1'
_symmetry_Int_Tables_number       1
_symmetry_cell_setting            triclinic
loop_
_symmetry_equiv_pos_as_xyz
  x,y,z
_cell_length_a                    26.3034
_cell_length_b                    26.3034
_cell_length_c                    26.3034
_cell_angle_alpha                 90.0
_cell_angle_beta                  90.0
_cell_angle_gamma                 90.0
loop_
_atom_site_label
_atom_site_type_symbol
_atom_site_fract_x
_atom_site_fract_y
_atom_site_fract_z
V1    V   -0.00000  0.25000  0.25000
V2    V   -0.00000  0.25000  0.75000
V3    V   -0.00000  0.75000  0.25000
V4    V   -0.00000  0.75000  0.75000
V5    V   0.23870  0.00000  0.26130
V6    V   0.23870  -0.00000  0.73870
V7    V   0.23870  0.26130  0.00000
V8    V   0.23870  0.23870  0.50000
V9    V   0.23870  0.50000  0.23870
V10   V   0.23870  0.50000  0.76130
V11   V   0.23870  0.73870  0.00000
V12   V   0.23870  0.76130  0.50000
V13   V   0.50000  0.25000  0.25000
V14   V   0.50000  0.25000  0.75000
V15   V   0.50000  0.75000  0.25000
V16   V   0.50000  0.75000  0.75000
V17   V   0.76130  0.00000  0.26130
V18   V   0.76130  -0.00000  0.73870
V19   V   0.76130  0.23870  0.50000
V20   V   0.76130  0.26130  0.00000
V21   V   0.76130  0.50000  0.23870
V22   V   0.76130  0.50000  0.76130
V23   V   0.76130  0.73870  0.00000
V24   V   0.76130  0.76130  0.50000
E1    E   0.07920  0.20610  0.29390
E2    E   0.07920  0.20610  0.70610
E3    E   0.07920  0.29390  0.20610
E4    E   0.07920  0.29390  0.79390
E5    E   0.07920  0.70610  0.20610
E6    E   0.07920  0.70610  0.79390
E7    E   0.07920  0.79390  0.29390
E8    E   0.07920  0.79390  0.70610
E9    E   0.19860  0.08110  0.29950
E10   E   0.19860  0.08110  0.70050
E11   E   0.19860  0.20050  0.41890
E12   E   0.19860  0.20050  0.58110
E13   E   0.19860  0.29950  0.08110
E14   E   0.19860  0.29950  0.91890
E15   E   0.19860  0.41890  0.20050
E16   E   0.19860  0.41890  0.79950
E17   E   0.19860  0.58110  0.20050
E18   E   0.19860  0.58110  0.79950
E19   E   0.19860  0.70050  0.08110
E20   E   0.19860  0.70050  0.91890
E21   E   0.19860  0.79950  0.41890
E22   E   0.19860  0.79950  0.58110
E23   E   0.19860  0.91890  0.29950
E24   E   0.19860  0.91890  0.70050
E25   E   0.29500  0.08640  0.21700
E26   E   0.29500  0.08640  0.78300
E27   E   0.29500  0.21700  0.08640
E28   E   0.29500  0.21700  0.91360
E29   E   0.29500  0.28300  0.41360
E30   E   0.29500  0.28300  0.58640
E31   E   0.29500  0.41360  0.28300
E32   E   0.29500  0.41360  0.71700
E33   E   0.29500  0.58640  0.28300
E34   E   0.29500  0.58640  0.71700
E35   E   0.29500  0.71700  0.41360
E36   E   0.29500  0.71700  0.58640
E37   E   0.29500  0.78300  0.08640
E38   E   0.29500  0.78300  0.91360
E39   E   0.29500  0.91360  0.21700
E40   E   0.29500  0.91360  0.78300
E41   E   0.42570  0.21140  0.21140
E42   E   0.42570  0.21140  0.78860
E43   E   0.42570  0.28860  0.28860
E44   E   0.42570  0.28860  0.71140
E45   E   0.42570  0.71140  0.28860
E46   E   0.42570  0.71140  0.71140
E47   E   0.42570  0.78860  0.21140
E48   E   0.42570  0.78860  0.78860
E49   E   0.59480  0.20110  0.20110
E50   E   0.59480  0.20110  0.79890
E51   E   0.59480  0.29890  0.29890
E52   E   0.59480  0.29890  0.70110
E53   E   0.59480  0.70110  0.29890
E54   E   0.59480  0.70110  0.70110
E55   E   0.59480  0.79890  0.20110
E56   E   0.59480  0.79890  0.79890
E57   E   0.72550  0.07610  0.20680
E58   E   0.72550  0.07610  0.79320
E59   E   0.72550  0.20680  0.07610
E60   E   0.72550  0.20680  0.92390
E61   E   0.72550  0.29320  0.42390
E62   E   0.72550  0.29320  0.57610
E63   E   0.72550  0.42390  0.29320
E64   E   0.72550  0.42390  0.70680
E65   E   0.72550  0.57610  0.29320
E66   E   0.72550  0.57610  0.70680
E67   E   0.72550  0.70680  0.42390
E68   E   0.72550  0.70680  0.57610
E69   E   0.72550  0.79320  0.07610
E70   E   0.72550  0.79320  0.92390
E71   E   0.72550  0.92390  0.20680
E72   E   0.72550  0.92390  0.79320
E73   E   0.80090  0.07970  0.30090
E74   E   0.80090  0.07970  0.69910
E75   E   0.80090  0.19910  0.42030
E76   E   0.80090  0.19910  0.57970
E77   E   0.80090  0.30090  0.07970
E78   E   0.80090  0.30090  0.92030
E79   E   0.80090  0.42030  0.19910
E80   E   0.80090  0.42030  0.80090
E81   E   0.80090  0.57970  0.19910
E82   E   0.80090  0.57970  0.80090
E83   E   0.80090  0.69910  0.07970
E84   E   0.80090  0.69910  0.92030
E85   E   0.80090  0.80090  0.42030
E86   E   0.80090  0.80090  0.57970
E87   E   0.80090  0.92030  0.30090
E88   E   0.80090  0.92030  0.69910
E89   E   0.92030  0.20470  0.29530
E90   E   0.92030  0.20470  0.70470
E91   E   0.92030  0.29530  0.20470
E92   E   0.92030  0.29530  0.79530
E93   E   0.92030  0.70470  0.20470
E94   E   0.92030  0.70470  0.79530
E95   E   0.92030  0.79530  0.29530
E96   E   0.92030  0.79530  0.70470
EC1    EC   0.15843  0.16223  0.33777
EC2    EC   0.15843  0.16223  0.66223
EC3    EC   0.15843  0.33777  0.16223
EC4    EC   0.15843  0.33777  0.83777
EC5    EC   0.15843  0.66223  0.16223
EC6    EC   0.15843  0.66223  0.83777
EC7    EC   0.15843  0.83777  0.33777
EC8    EC   0.15843  0.83777  0.66223
EC9    EC   0.35137  0.17275  0.17275
EC10   EC   0.35137  0.17275  0.82725
EC11   EC   0.35137  0.32725  0.32725
EC12   EC   0.35137  0.32725  0.67275
EC13   EC   0.35137  0.67275  0.32725
EC14   EC   0.35137  0.67275  0.67275
EC15   EC   0.35137  0.82725  0.17275
EC16   EC   0.35137  0.82725  0.82725
EC17   EC   0.68963  0.15225  0.15225
EC18   EC   0.68963  0.15225  0.84775
EC19   EC   0.68963  0.34775  0.34775
EC20   EC   0.68963  0.34775  0.65225
EC21   EC   0.68963  0.65225  0.34775
EC22   EC   0.68963  0.65225  0.65225
EC23   EC   0.68963  0.84775  0.15225
EC24   EC   0.68963  0.84775  0.84775
EC25   EC   0.84053  0.15947  0.34053
EC26   EC   0.84053  0.15947  0.65947
EC27   EC   0.84053  0.34053  0.15947
EC28   EC   0.84053  0.34053  0.84053
EC29   EC   0.84053  0.65947  0.15947
EC30   EC   0.84053  0.65947  0.84053
EC31   EC   0.84053  0.84053  0.34053
EC32   EC   0.84053  0.84053  0.65947
loop_
